IEEETestCases/37Bus/ieee37_702_elem_kVA.txt

  Bus   (node ref)  Node       V (kV)    Angle    p.u.   Base kV

702 ....... 1       2.6811 /_   -4.1   0.96748     4.800        1-2     4.7592 /_   26.8   0.99151
   -        2        2.816 /_ -124.0    1.0161     4.800        2-3     4.8818 /_  -95.6     1.017
   -        3       2.7536 /_  113.6   0.99363     4.800        3-1     4.6498 /_  144.3   0.96872

CIRCUIT ELEMENT CURRENTS

(Currents into element from indicated bus)

Power Delivery Elements

  Bus         Phase    Magnitude, A     Angle      (Real)   +j  (Imag)

ELEMENT = "Line.L1"
701             1           268.02 /_  -34.5 =     220.82 +j    -151.9
701             2           222.06 /_ -152.7 =    -197.39 +j   -101.73
701             3           254.71 /_   95.3 =    -23.437 +j    253.63
701         Resid       0.00018403 /_  155.7 =   -0.00016778 +j 7.5623E-005
------------
702             1           268.05 /_  145.5 =    -220.82 +j    151.96
702             2           222.09 /_   27.3 =     197.44 +j    101.69
702             3           254.73 /_  -84.7 =     23.379 +j   -253.65
702         Resid       0.00014423 /_  -19.3 =   0.00013608 +j -4.7781E-005


ELEMENT = "Line.L2"
702             1           21.175 /_  -56.5 =     11.697 +j   -17.652
702             2           20.871 /_ -125.0 =    -11.985 +j   -17.087
702             3            34.74 /_   89.5 =    0.28824 +j    34.739
702         Resid      1.6719E-005 /_  141.7 =   -1.3124E-005 +j 1.0358E-005
------------
705             1           21.185 /_  123.5 =    -11.696 +j    17.664
705             2           20.871 /_   54.9 =     11.995 +j     17.08
705             3           34.745 /_  -90.5 =   -0.29975 +j   -34.744
705         Resid      9.6366E-006 /_  -38.8 =   7.5116E-006 +j -6.0365E-006


ELEMENT = "Line.L3"
702             1           59.702 /_  -40.5 =     45.376 +j   -38.799
702             2           72.477 /_ -137.5 =    -53.408 +j   -48.995
702             3           88.161 /_   84.8 =     8.0322 +j    87.795
702         Resid      5.9443E-005 /_  124.1 =   -3.3314E-005 +j 4.9231E-005
------------
713             1            59.71 /_  139.5 =    -45.375 +j    38.813
713             2           72.481 /_   42.5 =      53.42 +j    48.987
713             3           88.168 /_  -95.2 =    -8.0451 +j     -87.8
713         Resid      5.2292E-005 /_  -58.5 =   2.7356E-005 +j -4.4565E-005


ELEMENT = "Line.L4"
702             1           189.56 /_  -30.3 =     163.75 +j   -95.508
702             2           136.76 /_ -164.9 =    -132.05 +j   -35.612
702             3            134.9 /_  103.6 =    -31.699 +j    131.12
702         Resid      9.0421E-005 /_ -172.5 =   -8.9646E-005 +j -1.1808E-005
------------
703             1            189.6 /_  149.7 =    -163.74 +j    95.593
703             2           136.82 /_   15.1 =     132.12 +j    35.561
703             3           134.91 /_  -76.4 =     31.618 +j   -131.15
703         Resid      6.1251E-005 /_   34.8 =   5.0305E-005 +j 3.4944E-005


= = = = = = = = = = = = = = = = = = =  = = = = = = = = = = =  = =

Power Conversion Elements

  Bus         Phase    Magnitude, A     Angle      (Real)   +j  (Imag)


CIRCUIT ELEMENT POWER FLOW

(Power Flow into element from indicated Bus)

  Bus       Phase     kW     +j   kvar           kVA           PF

ELEMENT = "Line.L1"          
702             1    -619.55 +j    -364.24        718.69      0.8621
702             2    -548.33 +j    -300.78        625.41      0.8768
702             3    -665.99 +j    -220.14        701.43      0.9495
 TERMINAL TOTAL      -1833.9 +j    -885.15        2036.3      0.9006
------------
ELEMENT = "Line.L1"          
701             1     624.21 +j     368.22        724.73      0.8613
701             2      550.9 +j     303.29        628.87      0.8760
701             3     669.72 +j     224.45        706.33      0.9482
 TERMINAL TOTAL       1844.8 +j     895.96        2050.9      0.8995
ELEMENT = "Line.L2"          
702             1      34.65 +j     44.974        56.775      0.6103
702             2     58.764 +j       1.07        58.774      0.9998
702             3      87.37 +j     38.958        95.662      0.9133
 TERMINAL TOTAL       180.78 +j     85.002        199.77      0.9050
------------
ELEMENT = "Line.L2"          
705             1    -34.594 +j    -44.988        56.751      0.6096
705             2    -58.712 +j    -1.0908        58.722      0.9998
705             3    -87.227 +j    -38.943        95.525      0.9131
 TERMINAL TOTAL      -180.53 +j    -85.022        199.55      0.9047
ELEMENT = "Line.L3"          
702             1     128.76 +j       95.1        160.07      0.8044
702             2     198.49 +j     47.525         204.1      0.9725
702             3     212.77 +j     116.89        242.76      0.8764
 TERMINAL TOTAL       540.01 +j     259.52        599.14      0.9013
------------
ELEMENT = "Line.L3"          
713             1    -128.54 +j    -95.021        159.85      0.8041
713             2     -198.2 +j    -47.414        203.79      0.9726
713             3    -212.35 +j    -116.67        242.29      0.8764
 TERMINAL TOTAL      -539.09 +j     -259.1        598.12      0.9013
ELEMENT = "Line.L4"          
702             1     456.15 +j     224.16        508.25      0.8975
702             2     291.08 +j     252.19        385.13      0.7558
702             3     365.85 +j     64.285        371.46      0.9849
 TERMINAL TOTAL       1113.1 +j     540.63        1237.4      0.8995
------------
ELEMENT = "Line.L4"          
703             1    -453.04 +j    -221.48        504.28      0.8984
703             2    -289.74 +j    -251.03        383.37      0.7558
703             3    -364.39 +j    -62.718        369.75      0.9855
 TERMINAL TOTAL      -1107.2 +j    -535.23        1229.8      0.9003
= = = = = = = = = = = = = = = = = = =  = = = = = = = = = = =  = =

Power Conversion Elements

  Bus         Phase     kW   +j  kvar         kVA         PF

